*Heading
** Job name: Job-1 Model name: Model-1
** Generated by: Abaqus/CAE 2022
*Preprint, echo=NO, model=NO, history=NO, contact=NO
**
** PARTS
**
*Part, name=Part-1
*Node
      1,           0.,           0.,           0.
      2,           0.,           0.,           0.
      3,           0.,           0.,           0.
      4,           0.,           0.,           0.
      5,           0.,           0.,           0.
      6,          -5.,          -5.,          10.
      7,          -5.,           5.,          10.
      8,          -5.,          -5.,           0.
      9,          -5.,           5.,           0.
      10,           5.,          -5.,          10.
      11,           5.,           5.,          10.
      12,           5.,          -5.,           0.
      13,           5.,           5.,           0.
*Element, type=C3D8R
1, 10, 11, 13, 12, 6, 7, 9, 8
*Nset, nset=Set-1, generate
 6,  13,  1
*Elset, elset=Set-1
 1,
** Section: Section-1
*Solid Section, elset=Set-1, material=Material-1
,
*End Part
**  
**
** ASSEMBLY
**
*Assembly, name=Assembly
**  
*Instance, name=Part-1-1, part=Part-1
*End Instance
**  
*Nset, nset=Set-1, instance=Part-1-1
 8, 9, 12, 13
*Elset, elset=Set-1, instance=Part-1-1
 1,
*Nset, nset=loadnodes, instance=Part-1-1
 6, 7, 10, 11
*End Assembly
** 
** MATERIALS
** 
*Material, name=Material-1
*Elastic
1., 0.3
** 
** BOUNDARY CONDITIONS
** 
** Name: BC-1 Type: Symmetry/Antisymmetry/Encastre
*Boundary
Set-1, ZSYMM
** ----------------------------------------------------------------
** 
** STEP: Step-1
** 
*Step, name=Step-1, nlgeom=NO
*Static
0.1, 1., 1e-05, 0.1
** 
** BOUNDARY CONDITIONS
** 
** Name: BC-2 Type: Displacement/Rotation
*Boundary, user
loadnodes, 1, 1, 1.
loadnodes, 2, 2, 1.
loadnodes, 3, 3, 1.
** 
** OUTPUT REQUESTS
** 
*Restart, write, frequency=0
** 
** FIELD OUTPUT: F-Output-1
** 
*Output, field, variable=PRESELECT
** 
** HISTORY OUTPUT: H-Output-1
** 
*Output, history, variable=PRESELECT
*End Step
