*Heading
** Job name: Step-2 Model name: Step-2
** Generated by: Abaqus/CAE 2022
*Preprint, echo=NO, model=NO, history=NO, contact=NO
**
** PARTS
**
*Part, name=cylinder
*Node
      1,           0.,          15.,          30.
      2,           0.,          15.,           0.
      3,          15.,           0.,           0.
      4,          15.,           0.,          30.
      5,           0.,         17.5,           0.
      6,         17.5,           0.,           0.
      7,         17.5,           0.,          30.
      8,           0.,         17.5,          30.
      9,           0.,         -15.,           0.
     10,           0.,         -15.,          30.
     11,           0.,        -17.5,          30.
     12,           0.,        -17.5,           0.
     13,         -15.,           0.,           0.
     14,         -15.,           0.,          30.
     15,        -17.5,           0.,           0.
     16,        -17.5,           0.,          30.
     17,           0.,          15.,         28.5
     18,           0.,          15.,          27.
     19,           0.,          15.,         25.5
     20,           0.,          15.,          24.
** ... 4264 like lines cut
*Element, type=C3D8R
  1,  158, 1073, 3069, 1041,    1,   17,  433,   86
  2, 1073, 1074, 3070, 3069,   17,   18,  434,  433
  3, 1074, 1075, 3071, 3070,   18,   19,  435,  434
  4, 1075, 1076, 3072, 3071,   19,   20,  436,  435
  5, 1076, 1077, 3073, 3072,   20,   21,  437,  436
  6, 1077, 1078, 3074, 3073,   21,   22,  438,  437
  7, 1078, 1079, 3075, 3074,   22,   23,  439,  438
  8, 1079, 1080, 3076, 3075,   23,   24,  440,  439
  9, 1080, 1081, 3077, 3076,   24,   25,  441,  440
 10, 1081, 1082, 3078, 3077,   25,   26,  442,  441
 11, 1082, 1083, 3079, 3078,   26,   27,  443,  442
 12, 1083, 1084, 3080, 3079,   27,   28,  444,  443
 13, 1084, 1085, 3081, 3080,   28,   29,  445,  444
 14, 1085, 1086, 3082, 3081,   29,   30,  446,  445
 15, 1086, 1087, 3083, 3082,   30,   31,  447,  446
 16, 1087, 1088, 3084, 3083,   31,   32,  448,  447
 17, 1088, 1089, 3085, 3084,   32,   33,  449,  448
 18, 1089, 1090, 3086, 3085,   33,   34,  450,  449
 19, 1090, 1091, 3087, 3086,   34,   35,  451,  450
 20, 1091,  160, 1057, 3087,   35,    2,   36,  451
** ... 2700 like lines cut
*Nset, nset=Set-1, generate
    1,  4284,     1
*Elset, elset=Set-1, generate
    1,  2720,     1
** Section: Section-1
*Solid Section, elset=Set-1, material=Material-1
,
*End Part
**  
**
** ASSEMBLY
**
*Assembly, name=Assembly
**  
*Instance, name=cylinder-1, part=cylinder
*End Instance
**  
*Nset, nset=Set-1, instance=cylinder-1
    2,    3,    5,    6,    9,   12,   13,   15,   36,   37,   38,   39,   40,   41,   42,   43
   44,   45,   46,   47,   48,   49,   50,   51,  106,  107,  108,  109,  110,  111,  112,  113
  114,  115,  116,  117,  118,  119,  120,  121,  159,  160,  196,  197,  198,  199,  200,  201
  202,  203,  204,  205,  206,  207,  208,  209,  210,  211,  247,  248,  249,  250,  251,  252
  253,  254,  255,  256,  257,  258,  259,  260,  261,  262,  263,  265,  266,  267,  268,  269
  270,  271,  272,  273,  274,  275,  276,  277,  278,  279,  280,  316,  317,  318,  319,  320
  321,  322,  323,  324,  325,  326,  327,  328,  329,  330,  331,  368,  385,  386,  387,  388
  389,  390,  391,  392,  393,  394,  395,  396,  397,  398,  399,  400,  417,  418,  419,  420
  421,  422,  423,  424,  425,  426,  427,  428,  429,  430,  431,  432, 1057, 1058, 1059, 1060
 1061, 1062, 1063, 1064, 1065, 1066, 1067, 1068, 1069, 1070, 1071, 1072, 1719, 1720, 1721, 1722
 1723, 1724, 1725, 1726, 1727, 1728, 1729, 1730, 1731, 1732, 1733, 1734, 2394, 2395, 2396, 2397
 2398, 2399, 2400, 2401, 2402, 2403, 2404, 2405, 2406, 2407, 2408, 2409, 3037, 3038, 3039, 3040
 3041, 3042, 3043, 3044, 3045, 3046, 3047, 3048, 3049, 3050, 3051, 3052
*Elset, elset=Set-1, instance=cylinder-1
   20,   40,   60,   80,  100,  120,  140,  160,  180,  200,  220,  240,  260,  280,  300,  320
  340,  360,  380,  400,  420,  440,  460,  480,  500,  520,  540,  560,  580,  600,  620,  640
  660,  680,  681,  701,  721,  741,  761,  781,  801,  821,  841,  861,  881,  901,  921,  941
  961,  981, 1001, 1021, 1041, 1061, 1081, 1101, 1121, 1141, 1161, 1181, 1201, 1221, 1241, 1261
 1281, 1301, 1321, 1341, 1380, 1400, 1420, 1440, 1460, 1480, 1500, 1520, 1540, 1560, 1580, 1600
 1620, 1640, 1660, 1680, 1700, 1720, 1740, 1760, 1780, 1800, 1820, 1840, 1860, 1880, 1900, 1920
 1940, 1960, 1980, 2000, 2020, 2040, 2041, 2061, 2081, 2101, 2121, 2141, 2161, 2181, 2201, 2221
 2241, 2261, 2281, 2301, 2321, 2341, 2361, 2381, 2401, 2421, 2441, 2461, 2481, 2501, 2521, 2541
 2561, 2581, 2601, 2621, 2641, 2661, 2681, 2701
*Nset, nset=allnodes, instance=cylinder-1
   17,   18,   19,   20,   21,   22,   23,   24,   25,   26,   27,   28,   29,   30,   31,   32
   33,   34,   35,   52,   53,   54,   55,   56,   57,   58,   59,   60,   61,   62,   63,   64
   65,   66,   67,   68,   69,   70,   87,   88,   89,   90,   91,   92,   93,   94,   95,   96
   97,   98,   99,  100,  101,  102,  103,  104,  105,  122,  123,  124,  125,  126,  127,  128
  129,  130,  131,  132,  133,  134,  135,  136,  137,  138,  139,  140,  161,  162,  163,  164
  165,  166,  167,  168,  169,  170,  171,  172,  173,  174,  175,  176,  177,  178,  179,  212
  213,  214,  215,  216,  217,  218,  219,  220,  221,  222,  223,  224,  225,  226,  227,  228
  229,  230,  281,  282,  283,  284,  285,  286,  287,  288,  289,  290,  291,  292,  293,  294
  295,  296,  297,  298,  299,  332,  333,  334,  335,  336,  337,  338,  339,  340,  341,  342
  343,  344,  345,  346,  347,  348,  349,  350,  433,  434,  435,  436,  437,  438,  439,  440
  441,  442,  443,  444,  445,  446,  447,  448,  449,  450,  451,  452,  453,  454,  455,  456
  457,  458,  459,  460,  461,  462,  463,  464,  465,  466,  467,  468,  469,  470,  471,  472
  473,  474,  475,  476,  477,  478,  479,  480,  481,  482,  483,  484,  485,  486,  487,  488
  489,  490,  491,  492,  493,  494,  495,  496,  497,  498,  499,  500,  501,  502,  503,  504
  505,  506,  507,  508,  509,  510,  511,  512,  513,  514,  515,  516,  517,  518,  519,  520
  521,  522,  523,  524,  525,  526,  527,  528,  529,  530,  531,  532,  533,  534,  535,  536
  537,  538,  539,  540,  541,  542,  543,  544,  545,  546,  547,  548,  549,  550,  551,  552
  553,  554,  555,  556,  557,  558,  559,  560,  561,  562,  563,  564,  565,  566,  567,  568
  569,  570,  571,  572,  573,  574,  575,  576,  577,  578,  579,  580,  581,  582,  583,  584
  585,  586,  587,  588,  589,  590,  591,  592,  593,  594,  595,  596,  597,  598,  599,  600
** ... 223 like lines cut
*Nset, nset=asymnode, instance=cylinder-1
    1,    4,    7,    8,   10,   11,   14,   16,   71,   72,   73,   74,   75,   76,   77,   78
   79,   80,   81,   82,   83,   84,   85,   86,  141,  142,  143,  144,  145,  146,  147,  148
  149,  150,  151,  152,  153,  154,  155,  156,  157,  158,  180,  181,  182,  183,  184,  185
  186,  187,  188,  189,  190,  191,  192,  193,  194,  195,  231,  232,  233,  234,  235,  236
  237,  238,  239,  240,  241,  242,  243,  244,  245,  246,  264,  300,  301,  302,  303,  304
  305,  306,  307,  308,  309,  310,  311,  312,  313,  314,  315,  351,  352,  353,  354,  355
  356,  357,  358,  359,  360,  361,  362,  363,  364,  365,  366,  367,  369,  370,  371,  372
  373,  374,  375,  376,  377,  378,  379,  380,  381,  382,  383,  384,  401,  402,  403,  404
  405,  406,  407,  408,  409,  410,  411,  412,  413,  414,  415,  416, 1041, 1042, 1043, 1044
 1045, 1046, 1047, 1048, 1049, 1050, 1051, 1052, 1053, 1054, 1055, 1056, 1735, 1736, 1737, 1738
 1739, 1740, 1741, 1742, 1743, 1744, 1745, 1746, 1747, 1748, 1749, 1750, 2378, 2379, 2380, 2381
 2382, 2383, 2384, 2385, 2386, 2387, 2388, 2389, 2390, 2391, 2392, 2393, 3053, 3054, 3055, 3056
 3057, 3058, 3059, 3060, 3061, 3062, 3063, 3064, 3065, 3066, 3067, 3068
*Nset, nset=fixnode, instance=cylinder-1
    2,    3,    5,    6,    9,   12,   13,   15,   36,   37,   38,   39,   40,   41,   42,   43
   44,   45,   46,   47,   48,   49,   50,   51,  106,  107,  108,  109,  110,  111,  112,  113
  114,  115,  116,  117,  118,  119,  120,  121,  159,  160,  196,  197,  198,  199,  200,  201
  202,  203,  204,  205,  206,  207,  208,  209,  210,  211,  247,  248,  249,  250,  251,  252
  253,  254,  255,  256,  257,  258,  259,  260,  261,  262,  263,  265,  266,  267,  268,  269
  270,  271,  272,  273,  274,  275,  276,  277,  278,  279,  280,  316,  317,  318,  319,  320
  321,  322,  323,  324,  325,  326,  327,  328,  329,  330,  331,  368,  385,  386,  387,  388
  389,  390,  391,  392,  393,  394,  395,  396,  397,  398,  399,  400,  417,  418,  419,  420
  421,  422,  423,  424,  425,  426,  427,  428,  429,  430,  431,  432, 1057, 1058, 1059, 1060
 1061, 1062, 1063, 1064, 1065, 1066, 1067, 1068, 1069, 1070, 1071, 1072, 1719, 1720, 1721, 1722
 1723, 1724, 1725, 1726, 1727, 1728, 1729, 1730, 1731, 1732, 1733, 1734, 2394, 2395, 2396, 2397
 2398, 2399, 2400, 2401, 2402, 2403, 2404, 2405, 2406, 2407, 2408, 2409, 3037, 3038, 3039, 3040
 3041, 3042, 3043, 3044, 3045, 3046, 3047, 3048, 3049, 3050, 3051, 3052
*Elset, elset=_Surf-1_S2, internal, instance=cylinder-1
    1,    2,    3,    4,    5,    6,    7,    8,    9,   10,   11,   12,   13,   14,   15,   16
   17,   18,   19,   20,   21,   22,   23,   24,   25,   26,   27,   28,   29,   30,   31,   32
   33,   34,   35,   36,   37,   38,   39,   40,   41,   42,   43,   44,   45,   46,   47,   48
   49,   50,   51,   52,   53,   54,   55,   56,   57,   58,   59,   60,   61,   62,   63,   64
   65,   66,   67,   68,   69,   70,   71,   72,   73,   74,   75,   76,   77,   78,   79,   80
   81,   82,   83,   84,   85,   86,   87,   88,   89,   90,   91,   92,   93,   94,   95,   96
   97,   98,   99,  100,  101,  102,  103,  104,  105,  106,  107,  108,  109,  110,  111,  112
  113,  114,  115,  116,  117,  118,  119,  120,  121,  122,  123,  124,  125,  126,  127,  128
  129,  130,  131,  132,  133,  134,  135,  136,  137,  138,  139,  140,  141,  142,  143,  144
  145,  146,  147,  148,  149,  150,  151,  152,  153,  154,  155,  156,  157,  158,  159,  160
  161,  162,  163,  164,  165,  166,  167,  168,  169,  170,  171,  172,  173,  174,  175,  176
  177,  178,  179,  180,  181,  182,  183,  184,  185,  186,  187,  188,  189,  190,  191,  192
  193,  194,  195,  196,  197,  198,  199,  200,  201,  202,  203,  204,  205,  206,  207,  208
  209,  210,  211,  212,  213,  214,  215,  216,  217,  218,  219,  220,  221,  222,  223,  224
  225,  226,  227,  228,  229,  230,  231,  232,  233,  234,  235,  236,  237,  238,  239,  240
  241,  242,  243,  244,  245,  246,  247,  248,  249,  250,  251,  252,  253,  254,  255,  256
  257,  258,  259,  260,  261,  262,  263,  264,  265,  266,  267,  268,  269,  270,  271,  272
  273,  274,  275,  276,  277,  278,  279,  280,  281,  282,  283,  284,  285,  286,  287,  288
  289,  290,  291,  292,  293,  294,  295,  296,  297,  298,  299,  300,  301,  302,  303,  304
  305,  306,  307,  308,  309,  310,  311,  312,  313,  314,  315,  316,  317,  318,  319,  320
** ... 65 like lines cut
*Surface, type=ELEMENT, name=Surf-1
_Surf-1_S2, S2
*End Assembly
*Amplitude, name=Amp-1
             0.,              0.,              1.,              1.
** 
** MATERIALS
** 
*Material, name=Material-1
*Elastic
1., 0.35
** 
** BOUNDARY CONDITIONS
** 
** Name: BC-1 Type: Symmetry/Antisymmetry/Encastre
*Boundary
fixnode, ENCASTRE
** Name: BC-2 Type: Symmetry/Antisymmetry/Encastre
*Boundary
asymnode, ENCASTRE
** ----------------------------------------------------------------
** 
** STEP: Step-1
** 
*Step, name=Step-1, nlgeom=NO, inc=1000
*Static
1., 1., 1e-10, 1.
** 
** BOUNDARY CONDITIONS
** 
** Name: BC-3 Type: Displacement/Rotation
*Boundary, user
allnodes, 1, 1, 1.
allnodes, 2, 2, 1.
allnodes, 3, 3, 1.
** 
** OUTPUT REQUESTS
** 
*Restart, write, frequency=0
** 
** FIELD OUTPUT: F-Output-1
** 
*Output, field, variable=PRESELECT
** 
** HISTORY OUTPUT: H-Output-1
** 
*Output, history, variable=PRESELECT
*End Step
