*Heading
** Job name: step2-test Model name: Compare
** Generated by: Abaqus/CAE 2022
*Preprint, echo=NO, model=NO, history=NO, contact=NO
**
** PARTS
**
*Part, name=Part-1
*Node
      1,          10.,          30.
      2,           9.,          30.
      3,           8.,          30.
      4,           7.,          30.
      5,           6.,          30.
      6,           5.,          30.
      7,          10.,          29.
      8,           9.,          29.
      9,           8.,          29.
     10,           7.,          29.
     11,           6.,          29.
     12,           5.,          29.
     13,          10.,          28.
     14,           9.,          28.
     15,           8.,          28.
     16,           7.,          28.
     17,           6.,          28.
     18,           5.,          28.
     19,          10.,          27.
     20,           9.,          27.
** ... 166 like lines cut
*Element, type=CAX4R
  1,   1,   2,   8,   7
  2,   2,   3,   9,   8
  3,   3,   4,  10,   9
  4,   4,   5,  11,  10
  5,   5,   6,  12,  11
  6,   7,   8,  14,  13
  7,   8,   9,  15,  14
  8,   9,  10,  16,  15
  9,  10,  11,  17,  16
 10,  11,  12,  18,  17
 11,  13,  14,  20,  19
 12,  14,  15,  21,  20
 13,  15,  16,  22,  21
 14,  16,  17,  23,  22
 15,  17,  18,  24,  23
 16,  19,  20,  26,  25
 17,  20,  21,  27,  26
 18,  21,  22,  28,  27
 19,  22,  23,  29,  28
 20,  23,  24,  30,  29
** ... 130 like lines cut
*Nset, nset=_PickedSet2, internal, generate
   1,  186,    1
*Elset, elset=_PickedSet2, internal, generate
   1,  150,    1
** Section: Section-1
*Solid Section, elset=_PickedSet2, material=Material-1
,
*End Part
**  
**
** ASSEMBLY
**
*Assembly, name=Assembly
**  
*Instance, name=Part-1-1, part=Part-1
*End Instance
**  
*Nset, nset=allnodes, instance=Part-1-1, generate
   7,  180,    1
*Nset, nset=_PickedSet4, internal, instance=Part-1-1
   1,   2,   3,   4,   5,   6, 181, 182, 183, 184, 185, 186
*Elset, elset=_PickedSet4, internal, instance=Part-1-1
   1,   2,   3,   4,   5, 146, 147, 148, 149, 150
*Elset, elset=__PickedSurf5_S2, internal, instance=Part-1-1, generate
   5,  150,    5
*Surface, type=ELEMENT, name=_PickedSurf5, internal
__PickedSurf5_S2, S2
*End Assembly
** 
** MATERIALS
** 
*Material, name=Material-1
*Elastic
100., 0.3
** ----------------------------------------------------------------
** 
** STEP: Step-1
** 
*Step, name=Step-1, nlgeom=YES
*Static
1., 1., 1e-05, 1.
** 
** BOUNDARY CONDITIONS
** 
** Name: BC-1 Type: Displacement/Rotation
*Boundary
_PickedSet4, 1, 1
_PickedSet4, 2, 2
** Name: BC-2 Type: Displacement/Rotation
*Boundary, user
allnodes, 1, 1
allnodes, 2, 2
** 
** OUTPUT REQUESTS
** 
*Restart, write, frequency=0
** 
** FIELD OUTPUT: F-Output-1
** 
*Output, field, variable=PRESELECT
** 
** HISTORY OUTPUT: H-Output-1
** 
*Output, history, variable=PRESELECT
*End Step
