*Heading
** Job name: Step-1 Model name: Model-1
** Generated by: Abaqus/CAE 2022
*Preprint, echo=NO, model=NO, history=NO, contact=NO
**
** PARTS
**
*Part, name=Part-1
*Node
      1,   10.6066017,   10.6066017,           0.
      2,           0.,          15.,           0.
      3,           0.,   10.6066017,   10.6066017
      4,   8.66814232,   8.66160774,   8.65100384
      5,   9.19238853,   9.19238853,           0.
      6,           0.,          13.,           0.
      7,           0.,   9.19238853,   9.19238853
      8,   7.32582188,   7.31542301,   7.31538391
      9,           0.,           0.,          15.
     10,   10.6066017,           0.,   10.6066017
     11,           0.,           0.,          13.
     12,   9.19238853,           0.,   9.19238853
     13,          15.,           0.,           0.
     14,          13.,           0.,           0.
     15,           0.,          10.,           0.
     16,           0.,   7.07106781,   7.07106781
     17,   7.07106781,   7.07106781,           0.
     18,   5.81597805,   5.75650358,   5.74778843
     19,           0.,           0.,          10.
     20,   7.07106781,           0.,   7.07106781
** ... 1966 like lines cut
*Element, type=C3D8R
   1,   95,  466, 1258,  448,    1,   22,  286,   57
   2,  466,  467, 1259, 1258,   22,   23,  287,  286
   3,  467,  468, 1260, 1259,   23,   24,  288,  287
   4,  468,  469, 1261, 1260,   24,   25,  289,  288
   5,  469,  470, 1262, 1261,   25,   26,  290,  289
   6,  470,  471, 1263, 1262,   26,   27,  291,  290
   7,  471,  472, 1264, 1263,   27,   28,  292,  291
   8,  472,  473, 1265, 1264,   28,   29,  293,  292
   9,  473,  474, 1266, 1265,   29,   30,  294,  293
  10,  474,   97,  457, 1266,   30,    2,   31,  294
  11,  448, 1258, 1267,  449,   57,  286,  295,   56
  12, 1258, 1259, 1268, 1267,  286,  287,  296,  295
  13, 1259, 1260, 1269, 1268,  287,  288,  297,  296
  14, 1260, 1261, 1270, 1269,  288,  289,  298,  297
  15, 1261, 1262, 1271, 1270,  289,  290,  299,  298
  16, 1262, 1263, 1272, 1271,  290,  291,  300,  299
  17, 1263, 1264, 1273, 1272,  291,  292,  301,  300
  18, 1264, 1265, 1274, 1273,  292,  293,  302,  301
  19, 1265, 1266, 1275, 1274,  293,  294,  303,  302
  20, 1266,  457,  458, 1275,  294,   31,   32,  303
** ... 1480 like lines cut
*Nset, nset=Mater_Assign, generate
    1,  1986,     1
*Elset, elset=Mater_Assign, generate
    1,  1500,     1
*Elset, elset=_FCsurface_S2, internal, generate
 1201,  1300,     1
*Elset, elset=_FCsurface_S3, internal
  901,  902,  903,  904,  905,  906,  907,  908,  909,  910,  931,  932,  933,  934,  935,  936
  937,  938,  939,  940,  961,  962,  963,  964,  965,  966,  967,  968,  969,  970,  991,  992
  993,  994,  995,  996,  997,  998,  999, 1000, 1021, 1022, 1023, 1024, 1025, 1026, 1027, 1028
 1029, 1030, 1051, 1052, 1053, 1054, 1055, 1056, 1057, 1058, 1059, 1060, 1081, 1082, 1083, 1084
 1085, 1086, 1087, 1088, 1089, 1090, 1111, 1112, 1113, 1114, 1115, 1116, 1117, 1118, 1119, 1120
 1141, 1142, 1143, 1144, 1145, 1146, 1147, 1148, 1149, 1150, 1171, 1172, 1173, 1174, 1175, 1176
 1177, 1178, 1179, 1180
*Elset, elset=_FCsurface_S4, internal, generate
 603,  900,    3
*Surface, type=ELEMENT, name=FCsurface
_FCsurface_S2, S2
_FCsurface_S3, S3
_FCsurface_S4, S4
** Section: Section-1
*Solid Section, elset=Mater_Assign, material=Material-1
,
*End Part
**  
**
** ASSEMBLY
**
*Assembly, name=Assembly
**  
*Instance, name=Part-1-1, part=Part-1
*End Instance
**  
*Node
      1,           0.,           0.,           0.
*Nset, nset=FC
 1,
*Nset, nset=allnodes, instance=Part-1-1, generate
    1,  1986,     1
*Nset, nset=_PickedSet9, internal, instance=Part-1-1
    2,    3,    6,    7,    9,   11,   15,   16,   19,   31,   32,   33,   34,   35,   36,   37
   38,   39,   67,   68,   69,   70,   71,   72,   73,   74,   75,   96,   97,   98,   99,  100
  101,  102,  103,  104,  105,  106,  125,  126,  127,  128,  129,  130,  131,  132,  133,  153
  191,  192,  193,  194,  195,  196,  197,  198,  199,  200,  201,  202,  203,  235,  236,  237
  238,  239,  240,  241,  242,  243,  244,  245,  457,  458,  459,  460,  461,  462,  463,  464
  465,  655,  656,  657,  658,  659,  660,  661,  662,  663,  853,  854,  855,  856,  857,  858
  859,  860,  861,  862,  863,  864,  865,  866,  867,  868,  869,  870, 1006, 1007, 1008, 1009
 1010, 1011, 1012, 1013, 1014, 1015, 1016, 1017, 1018, 1019, 1020, 1021, 1022, 1023
*Elset, elset=_PickedSet9, internal, instance=Part-1-1
  10,  20,  30,  40,  50,  60,  70,  80,  90, 100, 110, 120, 130, 140, 150, 160
 170, 180, 190, 200, 201, 202, 203, 204, 205, 206, 207, 208, 209, 210, 301, 302
 303, 304, 305, 306, 307, 308, 309, 310, 601, 602, 603, 604, 605, 606, 607, 608
 609, 610, 611, 612, 613, 614, 615, 616, 617, 618, 619, 620, 621, 622, 623, 624
 625, 626, 627, 628, 629, 630, 901, 902, 903, 904, 905, 906, 907, 908, 909, 910
 911, 912, 913, 914, 915, 916, 917, 918, 919, 920, 921, 922, 923, 924, 925, 926
 927, 928, 929, 930
*Nset, nset=_PickedSet10, internal, instance=Part-1-1
    9,   10,   11,   12,   13,   14,   19,   20,   21,  107,  108,  109,  110,  111,  112,  113
  114,  115,  134,  135,  136,  137,  138,  139,  140,  141,  142,  152,  153,  154,  155,  156
  157,  158,  159,  160,  161,  162,  172,  173,  174,  175,  176,  177,  178,  179,  180,  190
  244,  245,  255,  256,  257,  258,  259,  260,  261,  262,  263,  264,  265,  275,  276,  277
  278,  279,  280,  281,  282,  283,  284,  285,  646,  647,  648,  649,  650,  651,  652,  653
  654,  844,  845,  846,  847,  848,  849,  850,  851,  852, 1042, 1043, 1044, 1045, 1046, 1047
 1048, 1049, 1050, 1051, 1052, 1053, 1054, 1055, 1056, 1057, 1058, 1059, 1222, 1223, 1224, 1225
 1226, 1227, 1228, 1229, 1230, 1231, 1232, 1233, 1234, 1235, 1236, 1237, 1238, 1239
*Elset, elset=_PickedSet10, internal, instance=Part-1-1
  210,  220,  230,  240,  250,  260,  270,  280,  290,  300,  310,  320,  330,  340,  350,  360
  370,  380,  390,  400,  401,  402,  403,  404,  405,  406,  407,  408,  409,  410,  501,  502
  503,  504,  505,  506,  507,  508,  509,  510,  910,  920,  930,  940,  950,  960,  970,  980
  990, 1000, 1010, 1020, 1030, 1040, 1050, 1060, 1070, 1080, 1090, 1100, 1110, 1120, 1130, 1140
 1150, 1160, 1170, 1180, 1190, 1200, 1210, 1220, 1230, 1240, 1250, 1260, 1270, 1280, 1290, 1300
 1310, 1320, 1330, 1340, 1350, 1360, 1370, 1380, 1390, 1400, 1410, 1420, 1430, 1440, 1450, 1460
 1470, 1480, 1490, 1500
*Nset, nset=_PickedSet11, internal, instance=Part-1-1
    1,    2,    5,    6,   13,   14,   15,   17,   21,   22,   23,   24,   25,   26,   27,   28
   29,   30,   58,   59,   60,   61,   62,   63,   64,   65,   66,   95,   97,  163,  164,  165
  166,  167,  168,  169,  170,  171,  181,  182,  183,  184,  185,  186,  187,  188,  189,  190
  191,  192,  204,  205,  226,  227,  228,  229,  230,  231,  232,  233,  234,  266,  267,  268
  269,  270,  271,  272,  273,  274,  284,  285,  466,  467,  468,  469,  470,  471,  472,  473
  474,  835,  836,  837,  838,  839,  840,  841,  842,  843,  970,  971,  972,  973,  974,  975
  976,  977,  978,  979,  980,  981,  982,  983,  984,  985,  986,  987, 1240, 1241, 1242, 1243
 1244, 1245, 1246, 1247, 1248, 1249, 1250, 1251, 1252, 1253, 1254, 1255, 1256, 1257
*Elset, elset=_PickedSet11, internal, instance=Part-1-1
    1,    2,    3,    4,    5,    6,    7,    8,    9,   10,  101,  102,  103,  104,  105,  106
  107,  108,  109,  110,  410,  420,  430,  440,  450,  460,  470,  480,  490,  500,  510,  520
  530,  540,  550,  560,  570,  580,  590,  600,  601,  602,  603,  631,  632,  633,  661,  662
  663,  691,  692,  693,  721,  722,  723,  751,  752,  753,  781,  782,  783,  811,  812,  813
  841,  842,  843,  871,  872,  873, 1201, 1202, 1203, 1204, 1205, 1206, 1207, 1208, 1209, 1210
 1301, 1302, 1303, 1304, 1305, 1306, 1307, 1308, 1309, 1310, 1401, 1402, 1403, 1404, 1405, 1406
 1407, 1408, 1409, 1410
*End Assembly
** 
** MATERIALS
** 
*Material, name=Material-1
*Density
 1e-09,
*Elastic
200., 0.3
** 
** INTERACTION PROPERTIES
** 
*Fluid Behavior, name=IntProp-1
*Fluid Density
1e-09
*Fluid Bulk Modulus
2000.,
** 
** BOUNDARY CONDITIONS
** 
** Name: BC-2 Type: Symmetry/Antisymmetry/Encastre
*Boundary
_PickedSet9, XSYMM
** Name: BC-3 Type: Symmetry/Antisymmetry/Encastre
*Boundary
_PickedSet10, YSYMM
** Name: BC-4 Type: Symmetry/Antisymmetry/Encastre
*Boundary
_PickedSet11, ZSYMM
** 
** PREDEFINED FIELDS
** 
** Name: FC-pressure   Type: Fluid cavity pressure
*Initial Conditions, type=FLUID PRESSURE
FC, 1.
** 
** INTERACTIONS
** 
** Interaction: FC
*Fluid Cavity, name=FC, behavior=IntProp-1, refnode=FC, surface=Part-1-1.FCsurface

** ----------------------------------------------------------------
** 
** STEP: Step-1
** 
*Step, name=Step-1, nlgeom=YES
*Static
1., 1., 1e-05, 1.
** 
** OUTPUT REQUESTS
** 
*Restart, write, frequency=0
** 
** FIELD OUTPUT: F-Output-1
** 
*Output, field, variable=PRESELECT
** 
** HISTORY OUTPUT: H-Output-2
** 
*Output, history
*Node Output, nset=FC
CVOL, PCAV
** 
** HISTORY OUTPUT: H-Output-1
** 
*Output, history, variable=PRESELECT
*node print, nset=allnodes
U
*node print, nset=FC
PCAV
*End Step
